
     RDKit          3D

 21 21  0  0  0  0  0  0  0  0999 V2000
    3.4310    0.7612   -0.2368 C   0  0  0  0  0  0  0  0  0  0  0  0
   -2.5330   -1.5729    0.0247 C   0  0  0  0  0  0  0  0  0  0  0  0
   -1.6231   -2.2034   -0.8207 C   0  0  0  0  0  0  0  0  0  0  0  0
   -2.2695   -0.3170    0.5485 C   0  0  0  0  0  0  0  0  0  0  0  0
   -0.4255   -1.5581   -1.1452 C   0  0  0  0  0  0  0  0  0  0  0  0
    2.1082    0.1512   -0.0894 C   0  0  0  0  0  0  0  0  0  0  0  0
   -1.0768    0.2882    0.2054 C   0  0  0  0  0  0  0  0  0  0  0  0
   -0.1452   -0.2987   -0.6289 C   0  0  0  0  0  0  0  0  0  0  0  0
   -0.7753    1.6108    0.7436 C   0  0  0  0  0  0  0  0  0  0  0  0
    1.9078   -0.6510    0.8854 O   0  0  0  0  0  0  0  0  0  0  0  0
    0.3099    2.1841    0.4436 O   0  0  0  0  0  0  0  0  0  0  0  0
   -1.6472    2.2796    1.5881 O   0  0  0  0  0  0  0  0  0  0  0  0
    1.0364    0.3728   -0.9304 O   0  0  0  0  0  0  0  0  0  0  0  0
    3.6276    1.0627   -1.2856 H   0  0  0  0  0  0  0  0  0  0  0  0
    4.1861    0.0107    0.1264 H   0  0  0  0  0  0  0  0  0  0  0  0
    3.5761    1.6582    0.4186 H   0  0  0  0  0  0  0  0  0  0  0  0
   -3.4777   -2.0485    0.2985 H   0  0  0  0  0  0  0  0  0  0  0  0
   -1.8661   -3.1791   -1.2062 H   0  0  0  0  0  0  0  0  0  0  0  0
   -2.9586    0.2007    1.2102 H   0  0  0  0  0  0  0  0  0  0  0  0
    0.2723   -2.0506   -1.7982 H   0  0  0  0  0  0  0  0  0  0  0  0
   -1.6577    3.2990    1.6484 H   0  0  0  0  0  0  0  0  0  0  0  0
  1  6  1  0
  2  3  2  0
  2  4  1  0
  3  5  1  0
  4  7  2  0
  5  8  2  0
  6 10  2  0
  6 13  1  0
  7  8  1  0
  7  9  1  0
  8 13  1  0
  9 11  2  0
  9 12  1  0
  1 14  1  0
  1 15  1  0
  1 16  1  0
  2 17  1  0
  3 18  1  0
  4 19  1  0
  5 20  1  0
 12 21  1  0
M  END
